LTspice 24.1.6 for Windows
Circuit: C:\users\corte\Documents\facu\dispositivos\TP1\simulacion.net
Start Time: Tue Apr  1 20:49:48 2025
solver = Normal
Maximum thread count: 8
tnom = 27
temp = 27
method = trap
.OP point found by inspection.
Total elapsed time: 0.732 seconds.

Files loaded:
C:\users\corte\Documents\facu\dispositivos\TP1\simulacion.net

